@<TRIPOS>MOLECULE
*****
 20 20 0 0 0
SMALL
USER_CHARGES

@<TRIPOS>ATOM
      1 C1          1.5507   -2.8081   -0.1345 C.ar    1  NONAME1    -0.0370
      2 C2          0.2675   -3.4714   -0.2133 C.ar    1  NONAME1    -0.0184
      3 C3          0.2005   -4.8503   -0.3689 C.ar    1  NONAME1     0.1170
      4 C4          1.3755   -5.5727   -0.1824 C.ar    1  NONAME1    -0.0184
      5 C5          2.6416   -4.9105   -0.0776 C.ar    1  NONAME1    -0.0370
      6 C6          2.7901   -3.5143   -0.1522 C.ar    1  NONAME1     0.0336
      7 N1          4.1178   -2.8323   -0.2277 N.am    1  NONAME1    -0.2857
      8 C7          5.3790   -3.4627   -0.0491 C.2     1  NONAME1     0.2141
      9 C8          6.6496   -2.6262    0.3075 C.3     1  NONAME1     0.0125
     10 O1          5.5326   -4.6695   -0.0769 O.2     1  NONAME1    -0.2758
     11 O2         -0.9616   -5.5027   -0.6973 O.3     1  NONAME1    -0.5068
     12 H1          1.5231   -1.7233   -0.0353 H       1  NONAME1     0.0637
     13 H2         -0.6655   -2.9054   -0.1363 H       1  NONAME1     0.0655
     14 H3          1.3510   -6.6636   -0.1462 H       1  NONAME1     0.0655
     15 H4          3.5129   -5.5541   -0.0002 H       1  NONAME1     0.0637
     16 H5          4.1170   -1.8924   -0.6171 H       1  NONAME1     0.1548
     17 H6          7.3357   -3.3212    0.8319 H       1  NONAME1     0.0323
     18 H7          7.2527   -2.2544   -0.5321 H       1  NONAME1     0.0323
     19 H8          6.4617   -1.8277    1.0272 H       1  NONAME1     0.0323
     20 H9         -1.3909   -5.0970   -1.4795 H       1  NONAME1     0.2921
@<TRIPOS>BOND
     1     1     2   ar
     2     1     6   ar
     3     2     3   ar
     4     3     4   ar
     5     4     5   ar
     6     5     6   ar
     7     6     7    1
     8     7     8   am
     9     8     9    1
    10     8    10    2
    11     3    11    1
    12     1    12    1
    13     2    13    1
    14     4    14    1
    15     5    15    1
    16     7    16    1
    17     9    17    1
    18     9    18    1
    19     9    19    1
    20    11    20    1
