@<TRIPOS>MOLECULE
NONAME
 20 20 0 0 0
SMALL
USER_CHARGES

@<TRIPOS>ATOM
      1 C1          1.7172   -2.8603   -0.2565 C.ar    1  NONAME     -0.0370
      2 C2          0.4497   -3.4288   -0.4197 C.ar    1  NONAME     -0.0184
      3 C3          0.3259   -4.8109   -0.4801 C.ar    1  NONAME      0.1170
      4 C4          1.4457   -5.6253   -0.3805 C.ar    1  NONAME     -0.0184
      5 C5          2.7124   -5.0547   -0.2175 C.ar    1  NONAME     -0.0370
      6 C6          2.8599   -3.6676   -0.1542 C.ar    1  NONAME      0.0336
      7 N1          4.0973   -3.0116    0.0120 N.am    1  NONAME     -0.2857
      8 C7          5.3492   -3.5898    0.1223 C.2     1  NONAME      0.2141
      9 C8          6.4397   -2.5611    0.2935 C.3     1  NONAME      0.0125
     10 O1          5.6207   -4.7835    0.0654 O.2     1  NONAME     -0.2758
     11 O2         -0.8870   -5.4115   -0.6372 O.3     1  NONAME     -0.5068
     12 H1          1.7963   -1.7773   -0.2108 H       1  NONAME      0.0637
     13 H2         -0.4181   -2.7818   -0.4964 H       1  NONAME      0.0655
     14 H3          1.3402   -6.7057   -0.4284 H       1  NONAME      0.0655
     15 H4          3.5622   -5.7256   -0.1420 H       1  NONAME      0.0637
     16 H5          4.0599   -2.0012    0.0462 H       1  NONAME      0.1548
     17 H6          7.2906   -3.0171    0.8079 H       1  NONAME      0.0323
     18 H7          6.7572   -2.2041   -0.6896 H       1  NONAME      0.0323
     19 H8          6.0933   -1.7170    0.8969 H       1  NONAME      0.0323
     20 H9         -1.5713   -4.7250   -0.6911 H       1  NONAME      0.2921
@<TRIPOS>BOND
     1     1     2   ar
     2     1     6   ar
     3     2     3   ar
     4     3     4   ar
     5     4     5   ar
     6     5     6   ar
     7     6     7    1
     8     7     8   am
     9     8     9    1
    10     8    10    2
    11     3    11    1
    12     1    12    1
    13     2    13    1
    14     4    14    1
    15     5    15    1
    16     7    16    1
    17     9    17    1
    18     9    18    1
    19     9    19    1
    20    11    20    1
